Version 4
SHEET 1 1760 680
WIRE 768 -64 416 -64
WIRE 1696 -64 768 -64
WIRE 416 -16 416 -64
WIRE 768 64 768 -64
WIRE 272 112 240 112
WIRE 416 112 416 64
WIRE 416 112 352 112
WIRE 704 112 416 112
WIRE 1696 112 1696 -64
WIRE 416 128 416 112
WIRE -32 176 -64 176
WIRE 80 176 32 176
WIRE 240 176 240 112
WIRE 240 176 160 176
WIRE 352 176 240 176
WIRE 768 208 768 160
WIRE 896 208 768 208
WIRE 1072 208 960 208
WIRE 1216 208 1072 208
WIRE 768 240 768 208
WIRE -64 256 -64 176
WIRE 416 256 416 224
WIRE 512 256 416 256
WIRE 1072 256 1072 208
WIRE 512 288 512 256
WIRE 416 304 416 256
WIRE -64 416 -64 336
WIRE 416 416 416 368
WIRE 416 416 -64 416
WIRE 512 416 512 368
WIRE 512 416 416 416
WIRE 768 416 768 320
WIRE 768 416 512 416
WIRE 1072 416 1072 336
WIRE 1072 416 768 416
WIRE 1696 416 1696 192
WIRE 1696 416 1072 416
WIRE 1072 496 1072 416
WIRE 1072 512 1072 496
FLAG 1216 208 V_out
IOPIN 1216 208 Out
FLAG -64 176 V_in
IOPIN -64 176 In
FLAG 1072 496 0
SYMBOL res 176 160 R90
WINDOW 0 0 56 VBottom 2
WINDOW 3 32 56 VTop 2
SYMATTR InstName R1
SYMATTR Value 2K
SYMBOL res 368 96 R90
WINDOW 0 0 56 VBottom 2
WINDOW 3 32 56 VTop 2
SYMATTR InstName R2
SYMATTR Value 2K
SYMBOL npn 352 128 R0
SYMATTR InstName Q1
SYMBOL res 400 -32 R0
SYMATTR InstName R3
SYMATTR Value 600
SYMBOL res 496 272 R0
SYMATTR InstName RE1
SYMATTR Value 168
SYMBOL npn 704 64 R0
SYMATTR InstName Q2
SYMBOL res 752 224 R0
SYMATTR InstName RG2
SYMATTR Value 100
SYMBOL res 1056 240 R0
SYMATTR InstName R6
SYMATTR Value 50
SYMBOL voltage 1696 96 R0
WINDOW 123 0 0 Left 0
WINDOW 39 0 0 Left 0
SYMATTR InstName Vcc
SYMATTR Value 2.5
SYMBOL voltage -64 240 R0
WINDOW 123 24 124 Left 2
WINDOW 39 0 0 Left 0
SYMATTR Value2 AC 1m
SYMATTR InstName V_in
SYMATTR Value SINE(0 1m 100000000)
SYMBOL cap 960 192 R90
WINDOW 0 0 32 VBottom 2
WINDOW 3 32 32 VTop 2
SYMATTR InstName C3
SYMATTR Value 190p
SYMBOL cap 32 160 R90
WINDOW 0 0 32 VBottom 2
WINDOW 3 32 32 VTop 2
SYMATTR InstName C1
SYMATTR Value 5.81
SYMBOL cap 400 304 R0
SYMATTR InstName C2
SYMATTR Value 97p
TEXT -176 520 Left 2 !.ac lin 1K 100000K 1000000K
