Version 4
SHEET 1 988 680
WIRE 464 -128 160 -128
WIRE 160 -64 160 -128
WIRE 464 48 464 -128
WIRE 160 64 160 16
WIRE 288 64 160 64
WIRE 112 80 -48 80
WIRE 112 144 112 80
WIRE 160 144 160 112
WIRE -48 192 -48 80
WIRE -48 352 -48 272
WIRE 160 352 160 160
WIRE 160 352 -48 352
WIRE 464 352 464 128
WIRE 464 352 160 352
WIRE 160 384 160 352
FLAG 160 384 0
FLAG -48 80 V_in
IOPIN -48 80 In
FLAG 288 64 V_out
IOPIN 288 64 Out
SYMBOL res 144 -80 R0
SYMATTR InstName R_D
SYMATTR Value 5K
SYMBOL voltage -48 176 R0
WINDOW 0 46 16 Center 2
WINDOW 123 0 0 Left 0
WINDOW 39 0 0 Left 0
SYMATTR InstName V_in
SYMATTR Value 1.237
SYMBOL voltage 464 32 R0
WINDOW 123 0 0 Left 0
WINDOW 39 0 0 Left 0
SYMATTR InstName VDD
SYMATTR Value 1.8
SYMBOL nmos4 112 64 R0
SYMATTR InstName M1
SYMATTR Value2 l=0.18 w=20
TEXT 416 448 Left 2 !.model nmos nmos(kp=100u lambda=0)
TEXT -160 472 Left 2 !.dc V_in 0 1 0.0001
